/*--------------------------------*- C++ -*----------------------------------*\
| =========                 |                                                 |
| \\      /  F ield         | OpenFOAM: The Open Source CFD Toolbox           |
|  \\    /   O peration     | Version:  1.7.1                                 |
|   \\  /    A nd           | Web:      www.OpenFOAM.com                      |
|    \\/     M anipulation  |                                                 |
\*---------------------------------------------------------------------------*/
FoamFile
{
    version     2.0;
    format      ascii;
    class       dictionary;
    location    "system";
    object      sampleDict;
}
// * * * * * * * * * * * * * * * * * * * * * * * * * * * * * * * * * * * * * //

// // Set output format : choice of
// //      xmgr
// //      jplot
// //      gnuplot
// //      raw
setFormat raw;

// // Surface output format. Choice of
// //      null        : suppress output
// //      foamFile    : separate points, faces and values file
// //      dx          : DX scalar or vector format
// //      vtk         : VTK ascii format
// //      raw         : x y z value format for use with e.g. gnuplot 'splot'.
// //
// // Note:
// // other formats such as obj, stl, etc can also be written (by proxy)
// // but without any values!
surfaceFormat vtk;

// // interpolationScheme. choice of
// //      cell          : use cell-centre value only; constant over cells (default)
// //      cellPoint     : use cell-centre and vertex values
// //      cellPointFace : use cell-centre, vertex and face values.
// // 1] vertex values determined from neighbouring cell-centre values
// // 2] face values determined using the current face interpolation scheme
// //    for the field (linear, gamma, etc.)
interpolationScheme cellPoint;

// Fields to sample.
fields
(
    // U
    Ux
    Uy
    Uz
    // Umean
    // p
);

// offset   0.000001111111;    // offset coordinates by small amount to avoid case when
                            // sample point is same as faces, so perturb like ~0.1 % cell size
    
// // Set sampling definition: choice of
// //      uniform             evenly distributed points on line
// //      face                one point per face intersection
// //      midPoint            one point per cell, inbetween two face intersections
// //      midPointAndFace     combination of face and midPoint
// //
// //      curve               specified points, not nessecary on line, uses
// //                          tracking
// //      cloud               specified points, uses findCell
// //
// // axis: how to write point coordinate. Choice of
// // - x/y/z: x/y/z coordinate only
// // - xyz: three columns
// //  (probably does not make sense for anything but raw)
// // - distance: distance from start of sampling line (if uses line) or
// //             distance from first specified sampling point
// //
// // type specific:
// //      uniform, face, midPoint, midPointAndFace : start and end coordinate
// //      uniform: extra number of sampling points
// //      curve, cloud: list of coordinates
sets
(
    
    // diameters relative 
    // to upstream turbine      location x
    // =======================================
    // -3  0
    // -2  0.45
    // -1  0.9
    // 0   1.35
    // 1   1.8
    // 2   2.25
    // 3   2.7
    // 4   3.15
    // 5   3.6
    // 6   4.05
    // 7   4.5
    // 8   4.95
    // 9   5.4
    // 10  5.85
    // 11  6.3


    // relative to upstream turbine, horizontal line probe Diameters = -3
    // line-yx_x=-3D
    // {
    //     type        uniform;
    //     axis        distance;
    //     start       (0.0 0.0 0.4);
    //     end         (0.0 1.0 0.4);
    //     nPoints     32;
    // }
    // // relative to upstream turbine, horizontal line probe Diameters = -2
    // line-yx_x=-2D
    // {
    //     type        uniform;
    //     axis        distance;
    //     start       (0.45 0.0 0.4);
    //     end         (0.45 1.0 0.4);
    //     nPoints     32;
    // }
    // // relative to upstream turbine, horizontal line probe Diameters = -1
    // line-yx_x=-1D
    // {
    //     type        uniform;
    //     axis        distance;
    //     start       (0.9 0.0 0.4);
    //     end         (0.9 1.0 0.4);
    //     nPoints     32;
    // }
    // // relative to upstream turbine, horizontal line probe Diameters = +0
    // line-yx_x=+0D
    // {
    //     type        uniform;
    //     axis        distance;
    //     start       (1.35 0.0 0.4);
    //     end         (1.35 1.0 0.4);
    //     nPoints     32;
    // }
    // // relative to upstream turbine, horizontal line probe Diameters = +1
    // line-yx_x=+1D
    // {
    //     type        uniform;
    //     axis        distance;
    //     start       (1.8 0.0 0.4);
    //     end         (1.8 1.0 0.4);
    //     nPoints     32;
    // }
    // // relative to upstream turbine, horizontal line probe Diameters = +2
    // line-yx_x=+2D
    // {
    //     type        uniform;
    //     axis        distance;
    //     start       (2.25 0.0 0.4);
    //     end         (2.25 1.0 0.4);
    //     nPoints     32;
    // }
    // // relative to upstream turbine, horizontal line probe Diameters = +3
    // line-yx_x=+3D
    // {
    //     type        uniform;
    //     axis        distance;
    //     start       (2.7 0.0 0.4);
    //     end         (2.7 1.0 0.4);
    //     nPoints     32;
    // }
    // // relative to upstream turbine, horizontal line probe Diameters = +4
    // line-yx_x=+4D
    // {
    //     type        uniform;
    //     axis        distance;
    //     start       (3.15 0.0 0.4);
    //     end         (3.15 1.0 0.4);
    //     nPoints     32;
    // }
    // // relative to upstream turbine, horizontal line probe Diameters = +5
    // line-yx_x=+5D
    // {
    //     type        uniform;
    //     axis        distance;
    //     start       (3.6 0.0 0.4);
    //     end         (3.6 1.0 0.4);
    //     nPoints     32;
    // }
    // // relative to upstream turbine, horizontal line probe Diameters = +6
    // line-yx_x=+6D
    // {
    //     type        uniform;
    //     axis        distance;
    //     start       (4.05 0.0 0.4);
    //     end         (4.05 1.0 0.4);
    //     nPoints     32;
    // }
    // // relative to upstream turbine, horizontal line probe Diameters = +7
    // line-yx_x=+7D
    // {
    //     type        uniform;
    //     axis        distance;
    //     start       (4.5 0.0 0.4);
    //     end         (4.5 1.0 0.4);
    //     nPoints     32;
    // }
    // // relative to upstream turbine, horizontal line probe Diameters = +8
    // line-yx_x=+8D
    // {
    //     type        uniform;
    //     axis        distance;
    //     start       (4.95 0.0 0.4);
    //     end         (4.95 1.0 0.4);
    //     nPoints     32;
    // }
    // // relative to upstream turbine, horizontal line probe Diameters = +9
    // line-yx_x=+9D
    // {
    //     type        uniform;
    //     axis        distance;
    //     start       (5.4 0.0 0.4);
    //     end         (5.4 1.0 0.4);
    //     nPoints     32;
    // }
    // // relative to upstream turbine, horizontal line probe Diameters = +10
    // line-yx_x=+10D
    // {
    //     type        uniform;
    //     axis        distance;
    //     start       (5.85 0.0 0.4);
    //     end         (5.85 1.0 0.4);
    //     nPoints     32;
    // }
    // // relative to upstream turbine, horizontal line probe Diameters = +11
    // line-yx_x=+11D
    // {
    //     type        uniform;
    //     axis        distance;
    //     start       (6.3 0.0 0.4);
    //     end         (6.3 1.0 0.4);
    //     nPoints     32;
    // }

);

// Surface sampling definition: choice of
//      plane : values on plane defined by point, normal.
//      patch : values on patch.
//
// 1] patches are not triangulated by default
// 2] planes are always triangulated
// 3] iso-surfaces are always triangulated
surfaces
(

    // // relative to upstream turbine, yz plane at  Diameters = -3
    // plane-yz_x=-3D
    // {
    //     type            plane;    // always triangulated
    //     basePoint       (0.0 0.0 0.4);
    //     normalVector    (1 0 0);
    // }
    // // relative to upstream turbine, yz plane at  Diameters = -2
    // plane-yz_x=-2D
    // {
    //     type            plane;    // always triangulated
    //     basePoint       (0.45 0.0 0.4);
    //     normalVector    (1 0 0);
    // }
    // // relative to upstream turbine, yz plane at  Diameters = -1
    // plane-yz_x=-1D
    // {
    //     type            plane;    // always triangulated
    //     basePoint       (0.9 0.0 0.4);
    //     normalVector    (1 0 0);
    // }
    // // relative to upstream turbine, yz plane at  Diameters = +0
    // plane-yz_x=+0D
    // {
    //     type            plane;    // always triangulated
    //     basePoint       (1.35 0.0 0.4);
    //     normalVector    (1 0 0);
    // }
    // // relative to upstream turbine, yz plane at  Diameters = +1
    // plane-yz_x=+1D
    // {
    //     type            plane;    // always triangulated
    //     basePoint       (1.8 0.0 0.4);
    //     normalVector    (1 0 0);
    // }
    // // relative to upstream turbine, yz plane at  Diameters = +2
    // plane-yz_x=+2D
    // {
    //     type            plane;    // always triangulated
    //     basePoint       (2.25 0.0 0.4);
    //     normalVector    (1 0 0);
    // }
    // // relative to upstream turbine, yz plane at  Diameters = +3
    // plane-yz_x=+3D
    // {
    //     type            plane;    // always triangulated
    //     basePoint       (2.7 0.0 0.4);
    //     normalVector    (1 0 0);
    // }
    // // relative to upstream turbine, yz plane at  Diameters = +4
    // plane-yz_x=+4D
    // {
    //     type            plane;    // always triangulated
    //     basePoint       (3.15 0.0 0.4);
    //     normalVector    (1 0 0);
    // }
    // // relative to upstream turbine, yz plane at  Diameters = +5
    // plane-yz_x=+5D
    // {
    //     type            plane;    // always triangulated
    //     basePoint       (3.6 0.0 0.4);
    //     normalVector    (1 0 0);
    // }
    // // relative to upstream turbine, yz plane at  Diameters = +6
    // plane-yz_x=+6D
    // {
    //     type            plane;    // always triangulated
    //     basePoint       (4.05 0.0 0.4);
    //     normalVector    (1 0 0);
    // }
    // // relative to upstream turbine, yz plane at  Diameters = +7
    // plane-yz_x=+7D
    // {
    //     type            plane;    // always triangulated
    //     basePoint       (4.5 0.0 0.4);
    //     normalVector    (1 0 0);
    // }
    // // relative to upstream turbine, yz plane at  Diameters = +8
    // plane-yz_x=+8D
    // {
    //     type            plane;    // always triangulated
    //     basePoint       (4.95 0.0 0.4);
    //     normalVector    (1 0 0);
    // }
    // // relative to upstream turbine, yz plane at  Diameters = +9
    // plane-yz_x=+9D
    // {
    //     type            plane;    // always triangulated
    //     basePoint       (5.4 0.0 0.4);
    //     normalVector    (1 0 0);
    // }
    // // relative to upstream turbine, yz plane at  Diameters = +10
    // plane-yz_x=+10D
    // {
    //     type            plane;    // always triangulated
    //     basePoint       (5.85 0.0 0.4);
    //     normalVector    (1 0 0);
    // }
    // // relative to upstream turbine, yz plane at  Diameters = +11
    // plane-yz_x=+11D
    // {
    //     type            plane;    // always triangulated
    //     basePoint       (6.3 0.0 0.4);
    //     normalVector    (1 0 0);
    // }


    // zx plane, through turbine centerline
    // plane-zx_y=0.5
    // {
    //     type            plane;    // always triangulated
    //     basePoint       (0.0 0.5 0.0);
    //     normalVector    (0 1 0);
    // }


    // yx plane, through flume mid-depth (and turbine centerline)
    // // plane-yx__z_0p4
    // {
    //     type            plane;    // always triangulated
    //     // basePoint       (1.3501 0.5001 0.4001);
    //     basePoint       (1.3501 0.5001 0.4001);
    //     normalVector    (0 0 1);

    //     triangulate     true;
    // }
    plane-yx_z=0.4
    {
        type            cuttingPlane;
        planeType       pointAndNormal;
        pointAndNormalDict
        {
            basePoint       (0.0 0.0 0.4);
            normalVector    (0 0 1);
        }
        interpolate     true;
    }

);




// // ************************************************************************* //

// /*--------------------------------*- C++ -*----------------------------------*\
// | =========                 |                                                 |
// | \\      /  F ield         | OpenFOAM Extend Project: Open source CFD        |
// |  \\    /   O peration     | Version:  1.6-ext                               |
// |   \\  /    A nd           | Web:      www.extend-project.de                 |
// |    \\/     M anipulation  |                                                 |
// \*---------------------------------------------------------------------------*/
// FoamFile
// {
//     version     2.0;
//     format      ascii;
//     class       dictionary;
//     location    system;
//     object      sampleDict;
// }

// // * * * * * * * * * * * * * * * * * * * * * * * * * * * * * * * * * * * * //


// // Set sampling definition: choice of
// //      uniform             evenly distributed points on line
// //      face                one point per face intersection
// //      midPoint            one point per cell, inbetween two face intersections
// //      midPointAndFace     combination of face and midPoint
// //
// //      curve               specified points, not nessecary on line, uses
// //                          tracking
// //      cloud               specified points, uses findCell
// //
// // axis: how to write point coordinate. Choice of
// // - x/y/z: x/y/z coordinate only
// // - xyz: three columns
// //  (probably does not make sense for anything but raw)
// // - distance: distance from start of sampling line (if uses line) or
// //             distance from first specified sampling point
// //
// // type specific:
// //      uniform, face, midPoint, midPointAndFace : start and end coordinate
// //      uniform: extra number of sampling points
// //      curve, cloud: list of coordinates
// sets
// (
//     lineX1
//     {
//         type        uniform;
//         axis        distance;

//         //- cavity. Slightly perturbed so not to align with face or edge.
//         start       (0.0201 0.05101 0.00501);
//         end         (0.0601 0.05101 0.00501);
//         nPoints     10;
//     }

//     lineX2
//     {
//         type        face;
//         axis        x;

//         //- flangeHex
//         //start       (0 20  -20);
//         //end         (0 20   10);

//         //- nablaCavity
//         //start       (-1 0.05 0.005);
//         //end         ( 1 0.05 0.005);

//         //- cavity
//         start       (0.001 0.5101  0.00501);
//         end         (2.01 0.5101  0.00501);
//         nPoints     10;
//     }

//     somePoints
//     {
//         type    cloud;
//         axis    xyz;
//         points  ((0.049 0.049 0.00501)(0.051 0.049 0.00501));
//     }

// );


// // Surface sampling definition: choice of
// //      plane : values on plane defined by point, normal.
// //      patch : values on patch.
// //
// // 1] patches are not triangulated by default
// // 2] planes are always triangulated
// // 3] iso-surfaces are always triangulated
// surfaces
// (
//     constantPlane
//     {
//         type            plane;    // always triangulated
//         basePoint       (0.0501 0.0501 0.005);
//         normalVector    (0.1 0.1 1);

//         //- Optional: restrict to a particular zone
//         // zoneName        zone1;
//     }

//     interpolatedPlane
//     {
//         type            plane;    // always triangulated
//         // make plane relative to the coordinateSystem (Cartesian)
//         coordinateSystem
//         {
//             origin      (0.0501 0.0501 0.005);
//         }
//         basePoint       (0 0 0);
//         normalVector    (0.1 0.1 1);
//         interpolate     true;
//     }

//     movingWall_constant
//     {
//         type            patch;
//         patchName       movingWall;
//         // Optional: whether to leave as faces (=default) or triangulate
//         // triangulate     false;
//     }

//     movingWall_interpolated
//     {
//         type            patch;
//         patchName       movingWall;
//         interpolate     true;
//         // Optional: whether to leave as faces (=default) or triangulate
//         // triangulate     false;
//     }

//     interpolatedIso
//     {
//         // Iso surface for interpolated values only
//         type            isoSurface;    // always triangulated
//         isoField        rho;
//         isoValue        0.5;
//         interpolate     true;

//         //zone            ABC;          // Optional: zone only
//         //exposedPatchName fixedWalls;  // Optional: zone only

//         // regularise      false;    // Optional: do not simplify
//     }
//     constantIso
//     {
//         // Iso surface for constant values.
//         // Triangles guaranteed not to cross cells.
//         type            isoSurfaceCell;    // always triangulated
//         isoField        rho;
//         isoValue        0.5;
//         interpolate     false;
//         regularise      false;              // do not simplify
//     }

//     triangleCut
//     {
//         // Cutingplane using iso surface
//         type            cuttingPlane;
//         planeType       pointAndNormal;
//         pointAndNormalDict
//         {
//             basePoint       (0.4 0 0.4);
//             normalVector    (1 0.2 0.2);
//         }
//         interpolate     true;

//         //zone            ABC;          // Optional: zone only
//         //exposedPatchName fixedWalls;  // Optional: zone only

//         // regularise      false;    // Optional: do not simplify
//     }

// );


// // *********************************************************************** //

