/*--------------------------------*- C++ -*----------------------------------*\
| =========                 |                                                 |
| \\      /  F ield         | OpenFOAM: The Open Source CFD Toolbox           |
|  \\    /   O peration     | Version:  2.3.x                                 |
|   \\  /    A nd           | Web:      www.OpenFOAM.org                      |
|    \\/     M anipulation  |                                                 |
\*---------------------------------------------------------------------------*/
FoamFile
{
    version     2.0;
    format      ascii;
    class       dictionary;
    object      turbineProperties;
}
// * * * * * * * * * * * * * * * * * * * * * * * * * * * * * * * * * * * * * //

// This WT_Perf file must correspond to Nick's first generation of turbine.
//
// -----  WT_Perf Input File  -----------------------------------------------------
// This file (Optimal Solution) was generated automatically by HARP_Opt on January 24, 2013  5:54 PM 
// This line is for user comments.                                                   
// -----  Input Configuration  ----------------------------------------------------
// False                Echo:                      Echo input parameters to "<rootname>.ech"?
// True                 DimenInp:                  Turbine parameters are dimensional?
// True                 Metric:                    Turbine parameters are Metric (MKS vs FPS)?
// -----  Model Configuration  ----------------------------------------------------
// 1                    NumSect:                   Number of circumferential sectors.
// 1000                 MaxIter:                   Max number of iterations for induction factor.
// 1.0e-006             ATol:                      Error tolerance for induction iteration.
// 1.0e-006             SWTol:                     Error tolerance for skewed-wake iteration.
// -----  Algorithm Configuration  ------------------------------------------------
// True                 TipLoss:                   Use the Prandtl tip-loss model?
// True                 HubLoss:                   Use the Prandtl hub-loss model?
// True                 Swirl:                     Include Swirl effects?
// True                 SkewWake:                  Apply skewed-wake correction?
// True                 AdvBrake:                  Use the advanced brake-state model?
// True                 IndProp:                   Use PROP-PC instead of PROPX induction algorithm?
// True                 AIDrag:                    Use the drag term in the axial induction calculation?
// True                 TIDrag:                    Use the drag term in the tangential induction calculation?
// -----  Turbine Data  -----------------------------------------------------------
// 2                    NumBlade:                  Number of blades.
// 0.225000             RotorRad:                  Rotor radius [length].
// 0.028575             HubRad:                    Hub radius [length or div by radius].
// 0.0                  PreCone:                   Precone angle, positive downstream [deg].
// 0.0                  Tilt:                      Shaft tilt [deg].
// 0.0                  Yaw:                       Yaw error [deg].
// 75.000000            HubHt:                     Hub height [length or div by radius].
// 30                   NumSeg:                    Number of blade segments (entire rotor radius).
// RElm    Twist   Chord  AFfile  PrntElem
// 0.0318  20.070  0.0504    1     True
// 0.0384  16.380  0.0448    2     True
// 0.0449  13.860  0.0409    3     True
// 0.0515  11.976  0.0378    4     True
// 0.0580  10.505  0.0354    5     True
// 0.0646  9.326   0.0333    6     True
// 0.0711  8.348   0.0316    7     True
// 0.0777  7.527   0.0300    8     True
// 0.0842  6.832   0.0287    9     True
// 0.0908  6.237   0.0275    10    True
// 0.0973  5.723   0.0264    11    True
// 0.1039  5.273   0.0254    12    True
// 0.1104  4.875   0.0245    13    True
// 0.1170  4.520   0.0237    14    True
// 0.1235  4.199   0.0229    15    True
// 0.1301  3.911   0.0221    16    True
// 0.1366  3.647   0.0214    17    True
// 0.1432  3.399   0.0207    18    True
// 0.1497  3.164   0.0200    19    True
// 0.1563  2.940   0.0194    20    True
// 0.1628  2.724   0.0187    21    True
// 0.1693  2.511   0.0180    22    True
// 0.1759  2.300   0.0173    23    True
// 0.1824  2.088   0.0166    24    True
// 0.1890  1.873   0.0159    25    True
// 0.1955  1.654   0.0152    26    True
// 0.2021  1.426   0.0144    27    True
// 0.2086  1.191   0.0136    28    True
// 0.2152  0.948   0.0128    29    True
// 0.2217  0.689   0.0120    30    True
// -----  Aerodynamic Data  -------------------------------------------------------
// 1000.000000          Rho:                 Air density [mass/volume].
// 0.0000010000         KinVisc:             Kinematic air viscosity
// 0.000                ShearExp:            Wind shear exponent (1/7 law = 0.143).
// False                UseCm:               Are Cm data included in the airfoil tables?
// 30                                        NumAF:               Number of airfoil files.
// "Airfoil_Data\NICK_0150.dat"
// "Airfoil_Data\NICK_0150.dat"
// "Airfoil_Data\NICK_0150.dat"
// "Airfoil_Data\NICK_0150.dat"
// "Airfoil_Data\NICK_0150.dat"
// "Airfoil_Data\NICK_0150.dat"
// "Airfoil_Data\NICK_0150.dat"
// "Airfoil_Data\NICK_0150.dat"
// "Airfoil_Data\NICK_0150.dat"
// "Airfoil_Data\NICK_0150.dat"
// "Airfoil_Data\NICK_0150.dat"
// "Airfoil_Data\NICK_0150.dat"
// "Airfoil_Data\NICK_0150.dat"
// "Airfoil_Data\NICK_0150.dat"
// "Airfoil_Data\NICK_0150.dat"
// "Airfoil_Data\NICK_0150.dat"
// "Airfoil_Data\NICK_0150.dat"
// "Airfoil_Data\NICK_0150.dat"
// "Airfoil_Data\NICK_0150.dat"
// "Airfoil_Data\NICK_0150.dat"
// "Airfoil_Data\NICK_0150.dat"
// "Airfoil_Data\NICK_0150.dat"
// "Airfoil_Data\NICK_0150.dat"
// "Airfoil_Data\NICK_0150.dat"
// "Airfoil_Data\NICK_0150.dat"
// "Airfoil_Data\NICK_0150.dat"
// "Airfoil_Data\NICK_0150.dat"
// "Airfoil_Data\NICK_0150.dat"
// "Airfoil_Data\NICK_0150.dat"
// "Airfoil_Data\NICK_0150.dat"
// -----  I/O Settings  -----------------------------------------------------------
// True                 TabDel:                    Make output tab-delimited (fixed-width otherwise).
// True                 KFact:                     Output dimensional parameters in K (e.g., kN instead on N)
// True                 WriteBED:                  Write out blade element data to "<rootname>.bed"?
// False                InputTSR:                  Input speeds as TSRs?
// "mps"                SpdUnits:                  Wind-speed units (mps, fps, mph).
// -----  Combined-Case Analysis  -------------------------------------------------
// 6                    NumCases:                  Number of cases to run.  Enter zero for parametric analysis.
// WS or TSR   RotSpd   Pitch                      Remove following block of lines if NumCases is zero.
// 0.700   225.79  0.0
// 0.800   258.04  0.0
// 0.900   290.30  0.0
// 1.000   322.55  0.0
// 1.100   354.81  0.0
// 1.200   387.06  0.0

NumBl            	                    2;
TipRad           	      	     0.225000;
HubRad           	             0.028575;
UndSling            	          	  0.0;
OverHang            	       	   -0.508;
TowerHt                		       0.3429;
Twr2Shft                	       0.0508;
ShftTilt               		          0.0;
PreCone               		(0.0 0.0 0.0);
GBRatio                		          1.0;
// GenIner               		                    534.116;
// HubIner               		                    115.926E3;
// BladeIner             		                    11.776047E6;
GenTorqueControllerType   	       "none";
GenTorqueRateLimiter		        false;
NacYawControllerType      	       "none";
BladePitchControllerType    	   "none";
RatedRotSpeed			              327;
RotSpeedLimiter			             true;
NacYawRateLimiter		             true;
BladePitchRateLimiter		         true;
// SpeedFilterCornerFrequency	                     10; // Hz

GenTorqueControllerParams
{
    CutInGenSpeed           	      327;
    RatedGenSpeed          	          327;
    Region2StartGenSpeed    	      327;
    Region2EndGenSpeed     	          327;
    CutInGenTorque            	      0.0;
    // RatedGenTorque           	                  43.09355E3;
    // RateLimitGenTorque       	                  15.0E3;
    // KGen                                          2.55764E-2;
    // TorqueControllerRelax     	1.0;
}

  
BladePitchControllerParams  
{  
    PitchControlStartPitch            0.0;
    PitchControlEndPitch              0.0;
    PitchControlStartSpeed          999.9;
    PitchControlEndSpeed            999.9;
    RateLimitBladePitch             999.9;
} 
 
NacYawControllerParams 
{ 
    RateLimitNacYaw		               20; 
}


Airfoils
(
    "NACA_4415"
);


BladeData
(
//   radius(m)  c(m)     twist(deg) airfoil 
    (0.0318     0.0504   20.070     1)
    (0.0384     0.0448   16.380     1)
    (0.0449     0.0409   13.860     1)
    (0.0515     0.0378   11.976     1)
    (0.0580     0.0354   10.505     1)
    (0.0646     0.0333   9.326      1)
    (0.0711     0.0316   8.348      1)
    (0.0777     0.0300   7.527      1)
    (0.0842     0.0287   6.832      1)
    (0.0908     0.0275   6.237      1)
    (0.0973     0.0264   5.723      1)
    (0.1039     0.0254   5.273      1)
    (0.1104     0.0245   4.875      1)
    (0.1170     0.0237   4.520      1)
    (0.1235     0.0229   4.199      1)
    (0.1301     0.0221   3.911      1)
    (0.1366     0.0214   3.647      1)
    (0.1432     0.0207   3.399      1)
    (0.1497     0.0200   3.164      1)
    (0.1563     0.0194   2.940      1)
    (0.1628     0.0187   2.724      1)
    (0.1693     0.0180   2.511      1)
    (0.1759     0.0173   2.300      1)
    (0.1824     0.0166   2.088      1)
    (0.1890     0.0159   1.873      1)
    (0.1955     0.0152   1.654      1)
    (0.2021     0.0144   1.426      1)
    (0.2086     0.0136   1.191      1)
    (0.2152     0.0128   0.948      1)
    (0.2217     0.0120   0.689      1)
);
