/*--------------------------------*- C++ -*----------------------------------*\
| =========                 |                                                 |
| \\      /  F ield         | OpenFOAM: The Open Source CFD Toolbox           |
|  \\    /   O peration     | Version:  2.0.x                                 |
|   \\  /    A nd           | Web:      www.OpenFOAM.org                      |
|    \\/     M anipulation  |                                                 |
\*---------------------------------------------------------------------------*/
FoamFile
{
    version     2.0;
    format      ascii;
    class       dictionary;
    object      airfoilProperties;
}
// * * * * * * * * * * * * * * * * * * * * * * * * * * * * * * * * * * * * * //

airfoilData
(
//   alpha   C_l    C_d
	(-180.00	 0	    1	   )
	(-170.00	 0	    1	   )
	(-160.00	 0	    1	   )
	(-150.00	 0	    1	   )
	(-140.00	 0	    1	   )
	(-130.00	 0	    1	   )
	(-120.00	 0	    1	   )
	(-110.00	 0	    1	   )
	(-100.00	 0	    1	   )
	(-90.00	     0	    1	   )
	(-80.00	     0	    1	   )
	(-70.00	     0	    1	   )
	(-60.00	     0	    1	   )
	(-50.00	     0	    1	   )
	(-40.00	     0	    1	   )
	(-30.00	     0	    1	   )
	(-20.00	     0	    1	   )
	(-10.00	     0	    1	   )
	(-7.00	    -0.33	0.0019 )
	(-6.00	    -0.23	0.0024 )
	(-5.00	    -0.13	0.0036 )
	(-4.00	    -0.03	0.0043 )
	(-3.00	    0.07	0.0043 )
	(-2.00	    0.18	0.0043 )
	(-1.00	    0.28	0.0052 )
	(0.00	    0.38	0.0053 )
	(1.00	    0.48	0.0054 )
	(2.00	    0.57	0.0061 )
	(3.00	    0.66	0.0064 )
	(4.00	    0.74	0.0068 )
	(5.00	    0.82	0.0072 )
	(6.00	    0.89	0.0079 )
	(7.00	    0.96	0.0090 )
	(8.00	    1.03	0.0099 )
	(9.00	    1.09	0.0119 )
	(10.00	    1.15	0.0134 )
	(11.00	    1.21	0.0154 )
	(12.00	    1.26	0.0210 )
	(13.00	    1.3	    0.0378 )
	(14.00	    1.3	    0.0558 )
	(15.00	    1.24	0.0658 )
	(16.00	    1.13	0.0739 )
	(17.00	    1.04	0.0821 )
	(18.00	    0.97	0.0909 )
	(19.00	    0.94	0.1073 )
	(20.00	    0.91	0.1227 )
	(21.00	    0.90	0.1412 )
	(30.97	    0	    1	   )
	(32.24	    0	    1	   )
	(33.48	    0	    1	   )
	(40.00	    0	    1	   )
	(50.00	    0	    1	   )
	(60.00	    0	    1	   )
	(70.00	    0	    1	   )
	(80.00	    0	    1	   )
	(90.00	    0	    1	   )
	(100.00	    0	    1	   )
	(110.00	    0	    1	   )
	(120.00	    0	    1	   )
	(130.00	    0	    1	   )
	(140.00	    0	    1	   )
	(150.00	    0	    1	   )
	(160.00	    0	    1	   )
	(170.00	    0	    1	   )
	(180.00	    0	    1	   )
); 
