/*--------------------------------*- C++ -*----------------------------------*\
| =========                 |                                                 |
| \\      /  F ield         | OpenFOAM: The Open Source CFD Toolbox           |
|  \\    /   O peration     | Version:  2.0.x                                 |
|   \\  /    A nd           | Web:      www.OpenFOAM.org                      |
|    \\/     M anipulation  |                                                 |
\*---------------------------------------------------------------------------*/
FoamFile
{
    version     2.0;
    format      ascii;
    class       dictionary;
    object      airfoilProperties;
}
// * * * * * * * * * * * * * * * * * * * * * * * * * * * * * * * * * * * * * //

airfoilData
(
//   alpha   C_l    C_d
  (-180   0.0000  0.0100)
  (-170   0.3000  0.0131)
  (-160   0.6000  0.1263)
  (-150   0.5932  0.2998)
  (-140   0.5677  0.5129)
  (-130   0.5174  0.7402)
  (-120   0.4299  0.9544)
  (-110   0.3070  1.1301)
  (-100   0.1586  1.2465)
  (-90    0.0000  1.2900)
  (-80   -0.1586  1.2465)
  (-70   -0.3070  1.1301)
  (-60   -0.4299  0.9544)
  (-50   -0.5174  0.7402)
  (-40   -0.5677  0.5129)
  (-30   -0.5932  0.2998)
  (-20   -0.6015  0.1313)
  (-10   -0.4658  0.0318)
  (-7    -0.3300  0.0019)
  (-6    -0.2300  0.0024)
  (-5    -0.1300  0.0036)
  (-4    -0.0300  0.0043)
  (-3     0.0700  0.0043)
  (-2     0.1800  0.0043)
  (-1     0.2800  0.0052)
  (0      0.3800  0.0053)
  (1      0.4800  0.0054)
  (2      0.5700  0.0061)
  (3      0.6600  0.0064)
  (4      0.7400  0.0068)
  (5      0.8200  0.0072)
  (6      0.8900  0.0079)
  (7      0.9600  0.0090)
  (8      1.0300  0.0099)
  (9      1.0900  0.0119)
  (10     1.1500  0.0134)
  (11     1.2100  0.0154)
  (12     1.2600  0.0210)
  (13     1.3000  0.0378)
  (14     1.3000  0.0558)
  (15     1.2400  0.0658)
  (16     1.1300  0.0739)
  (17     1.0400  0.0821)
  (18     0.9700  0.0909)
  (19     0.9400  0.1073)
  (20     0.9100  0.1227)
  (21     0.9000  0.1412)
  (30     0.8475  0.2998)
  (40     0.8110  0.5129)
  (50     0.7391  0.7402)
  (60     0.6142  0.9544)
  (70     0.4386  1.1301)
  (80     0.2265  1.2465)
  (90     0.0000  1.2900)
  (100   -0.1586  1.2465)
  (110   -0.3070  1.1301)
  (120   -0.4299  0.9544)
  (130   -0.5174  0.7402)
  (140   -0.5677  0.5129)
  (150   -0.5932  0.2998)
  (160   -0.6000  0.1263)
  (170   -0.3000  0.0131)
  (180    0.0000  0.0100)
); 
