/*--------------------------------*- C++ -*----------------------------------*\
| =========                 |                                                 |
| \\      /  F ield         | OpenFOAM: The Open Source CFD Toolbox           |
|  \\    /   O peration     | Version:  2.2.2                                 |
|   \\  /    A nd           | Web:      www.OpenFOAM.org                      |
|    \\/     M anipulation  |                                                 |
\*---------------------------------------------------------------------------*/
FoamFile
{
    version     2.0;
    format      binary;
    class       polyBoundaryMesh;
    location    "constant/polyMesh";
    object      boundary;
}
// * * * * * * * * * * * * * * * * * * * * * * * * * * * * * * * * * * * * * //

6
(
    bottom
    {
        type            cyclic;
        inGroups        1(cyclic);
        nFaces          23250;
        startFace       2746150;
        matchTolerance  0.0001;
        transform       unknown;
        neighbourPatch  top;
    }
    top
    {
        type            cyclic;
        inGroups        1(cyclic);
        nFaces          23250;
        startFace       2769400;
        matchTolerance  0.0001;
        transform       unknown;
        neighbourPatch  bottom;
    }
    west
    {
        type            inflow;
        nFaces          2000;
        startFace       2792650;
        faces           ( ( 0 4 7 3 ) );
    }
    east
    {
        type            outflow;
        nFaces          2000;
        startFace       2794650;
        faces           ( ( 1 2 6 5 ) );
    }
    north
    {
        type            cyclic;
        inGroups        1(cyclic);
        nFaces          18600;
        startFace       2796650;
        matchTolerance  0.0001;
        transform       unknown;
        neighbourPatch  south;
    }
    south
    {
        type            cyclic;
        inGroups        1(cyclic);
        nFaces          18600;
        startFace       2815250;
        matchTolerance  0.0001;
        transform       unknown;
        neighbourPatch  north;
    }
)

// ************************************************************************* //
