/*--------------------------------*- C++ -*----------------------------------*\
| =========                 |                                                 |
| \\      /  F ield         | OpenFOAM: The Open Source CFD Toolbox           |
|  \\    /   O peration     | Version:  2.4.x                                 |
|   \\  /    A nd           | Web:      www.OpenFOAM.org                      |
|    \\/     M anipulation  |                                                 |
\*---------------------------------------------------------------------------*/
FoamFile
{
    version     2.0;
    format      binary;
    class       polyBoundaryMesh;
    location    "constant/polyMesh";
    object      boundary;
}
// * * * * * * * * * * * * * * * * * * * * * * * * * * * * * * * * * * * * * //

6
(
    bottom
    {
        type            wall;
        inGroups        1(wall);
        nFaces          40320;
        startFace       7663744;
    }
    top
    {
        type            wall;
        inGroups        1(wall);
        nFaces          40320;
        startFace       7704064;
    }
    west
    {
        type            inflow;
        nFaces          5120;
        startFace       7744384;
        faces           ( ( 0 4 7 3 ) );
    }
    east
    {
        type            outflow;
        nFaces          5120;
        startFace       7749504;
        faces           ( ( 1 2 6 5 ) );
    }
    north
    {
        type            wall;
        inGroups        1(wall);
        nFaces          32256;
        startFace       7754624;
    }
    south
    {
        type            wall;
        inGroups        1(wall);
        nFaces          32256;
        startFace       7786880;
    }
)

// ************************************************************************* //
