/*--------------------------------*- C++ -*----------------------------------*\
| =========                 |                                                 |
| \\      /  F ield         | OpenFOAM: The Open Source CFD Toolbox           |
|  \\    /   O peration     | Version:  2.2.2                                 |
|   \\  /    A nd           | Web:      www.OpenFOAM.org                      |
|    \\/     M anipulation  |                                                 |
\*---------------------------------------------------------------------------*/
FoamFile
{
    version     2.0;
    format      binary;
    class       polyBoundaryMesh;
    location    "constant/polyMesh";
    object      boundary;
}
// * * * * * * * * * * * * * * * * * * * * * * * * * * * * * * * * * * * * * //

6
(
    bottom
    {
        type            wall;
        nFaces          52350;
        startFace       9324270;
    }
    top
    {
        type            wall;
        nFaces          52350;
        startFace       9376620;
    }
    west
    {
        type            inflow;
        nFaces          4500;
        startFace       9428970;
        faces           ( ( 0 4 7 3 ) );
    }
    east
    {
        type            outflow;
        nFaces          4500;
        startFace       9433470;
        faces           ( ( 1 2 6 5 ) );
    }
    north
    {
        type            wall;
        nFaces          41880;
        startFace       9437970;
    }
    south
    {
        type            wall;
        nFaces          41880;
        startFace       9479850;
    }
)

// ************************************************************************* //
