/*--------------------------------*- C++ -*----------------------------------*\
| =========                 |                                                 |
| \\      /  F ield         | OpenFOAM: The Open Source CFD Toolbox           |
|  \\    /   O peration     | Version:  2.1.1                                 |
|   \\  /    A nd           | Web:      www.OpenFOAM.org                      |
|    \\/     M anipulation  |                                                 |
\*---------------------------------------------------------------------------*/
FoamFile
{
    version     2.0;
    format      binary;
    class       polyBoundaryMesh;
    location    "constant/polyMesh";
    object      boundary;
}
// * * * * * * * * * * * * * * * * * * * * * * * * * * * * * * * * * * * * * //

6
(
    bottom
    {
        type            wall;
        nFaces          25600;
        startFace       3798000;
    }
    top
    {
        type            wall;
        nFaces          25600;
        startFace       3823600;
    }
    west
    {
        type            inflow;
        nFaces          6400;
        startFace       3849200;
        faces           ( ( 0 4 7 3 ) );
    }
    east
    {
        type            outflow;
        nFaces          6400;
        startFace       3855600;
        faces           ( ( 1 2 6 5 ) );
    }
    north
    {
        type            wall;
        nFaces          10000;
        startFace       3862000;
    }
    south
    {
        type            wall;
        nFaces          10000;
        startFace       3872000;
    }
)

// ************************************************************************* //
