/*--------------------------------*- C++ -*----------------------------------*\
| =========                 |                                                 |
| \\      /  F ield         | OpenFOAM: The Open Source CFD Toolbox           |
|  \\    /   O peration     | Version:  2.1.1                                 |
|   \\  /    A nd           | Web:      www.OpenFOAM.org                      |
|    \\/     M anipulation  |                                                 |
\*---------------------------------------------------------------------------*/
FoamFile
{
    version     2.0;
    format      binary;
    class       polyBoundaryMesh;
    location    "constant/polyMesh";
    object      boundary;
}
// * * * * * * * * * * * * * * * * * * * * * * * * * * * * * * * * * * * * * //

6
(
    bottom
    {
        type            wall;
        nFaces          31000;
        startFace       2284650;
    }
    top
    {
        type            wall;
        nFaces          31000;
        startFace       2315650;
    }
    west
    {
        type            inflow;
        nFaces          3100;
        startFace       2346650;
        faces           ( ( 0 4 7 3 ) );
    }
    east
    {
        type            outflow;
        nFaces          3100;
        startFace       2349750;
        faces           ( ( 1 2 6 5 ) );
    }
    north
    {
        type            wall;
        nFaces          6250;
        startFace       2352850;
    }
    south
    {
        type            wall;
        nFaces          6250;
        startFace       2359100;
    }
)

// ************************************************************************* //
