/*--------------------------------*- C++ -*----------------------------------*\
| =========                 |                                                 |
| \\      /  F ield         | OpenFOAM: The Open Source CFD Toolbox           |
|  \\    /   O peration     | Version:  2.4.x                                 |
|   \\  /    A nd           | Web:      www.OpenFOAM.org                      |
|    \\/     M anipulation  |                                                 |
\*---------------------------------------------------------------------------*/
FoamFile
{
    version     2.0;
    format      binary;
    class       polyBoundaryMesh;
    location    "constant/polyMesh";
    object      boundary;
}
// * * * * * * * * * * * * * * * * * * * * * * * * * * * * * * * * * * * * * //

6
(
    bottom
    {
        type            wall;
        inGroups        1(wall);
        nFaces          15750;
        startFace       1859650;
    }
    top
    {
        type            wall;
        inGroups        1(wall);
        nFaces          15750;
        startFace       1875400;
    }
    west
    {
        type            inflow;
        nFaces          2000;
        startFace       1891150;
        faces           ( ( 0 4 7 3 ) );
    }
    east
    {
        type            outflow;
        nFaces          2000;
        startFace       1893150;
        faces           ( ( 1 2 6 5 ) );
    }
    north
    {
        type            wall;
        inGroups        1(wall);
        nFaces          12600;
        startFace       1895150;
    }
    south
    {
        type            wall;
        inGroups        1(wall);
        nFaces          12600;
        startFace       1907750;
    }
)

// ************************************************************************* //
