/*--------------------------------*- C++ -*----------------------------------*\
| =========                 |                                                 |
| \\      /  F ield         | OpenFOAM: The Open Source CFD Toolbox           |
|  \\    /   O peration     | Version:  1.6                                   |
|   \\  /    A nd           | Web:      www.OpenFOAM.org                      |
|    \\/     M anipulation  |                                                 |
\*---------------------------------------------------------------------------*/
FoamFile
{
    version     2.0;
    format      ascii;
    class       dictionary;
    location    "system";
    object      controlDict;
}
// * * * * * * * * * * * * * * * * * * * * * * * * * * * * * * * * * * * * * //

application       fastfoam;

libs              ("libuserfiniteVolume.so");

// startFrom         startTime;
 startFrom         latestTime;

startTime         0.0;

startTimeMean     0.0;

startTimeCorr     0.0;

stopAt            endTime;

// endTime           2.0;
// endTime           20.0;
endTime          200.0;

deltaT            0.15;

writeControl      adjustableRunTime;

writeInterval     0.3;	// should probably need higher write frequency when enabling DoF for blade deflections (1st flap mode is like 8 Hz?)

purgeWrite        0;

writeFormat       binary;
//writeFormat       ascii;

writePrecision    12;

//writeCompression  compressed;
writeCompression  uncompressed;

timeFormat        general;

timePrecision     12;

runTimeModifiable yes;

adjustTimeStep    no;
// adjustTimeStep    yes;

// maxCo             0.25;
maxCo             0.75;

maxDeltaT         25.0;

functions
{
}
