/*--------------------------------*- C++ -*----------------------------------*\
| =========                 |                                                 |
| \\      /  F ield         | OpenFOAM: The Open Source CFD Toolbox           |
|  \\    /   O peration     | Version:  1.6                                   |
|   \\  /    A nd           | Web:      www.OpenFOAM.org                      |
|    \\/     M anipulation  |                                                 |
\*---------------------------------------------------------------------------*/
FoamFile
{
    version     2.0;
    format      ascii;
    class       dictionary;
    location    "system";
    object      controlDict;
}
// * * * * * * * * * * * * * * * * * * * * * * * * * * * * * * * * * * * * * //

application       fastfoam;

libs              ("libuserfiniteVolume.so");

// startFrom         startTime;
 startFrom         latestTime;

// startTime         0.0;
startTime         10.0;

startTimeMean     1.0;

startTimeCorr     2.0;

stopAt            endTime;

endTime           20.0;

deltaT            0.001;

writeControl      adjustableRunTime;

writeInterval     0.02; 

purgeWrite        0;

writeFormat       binary;
//writeFormat       ascii;

writePrecision    12;

//writeCompression  compressed;
writeCompression  uncompressed;

timeFormat        general;

timePrecision     12;

runTimeModifiable yes;

adjustTimeStep    no;
// adjustTimeStep    yes;

maxCo             0.25;

maxDeltaT         25.0;

functions
{
}
