/*--------------------------------*- C++ -*----------------------------------*\
| =========                 |                                                 |
| \\      /  F ield         | OpenFOAM: The Open Source CFD Toolbox           |
|  \\    /   O peration     | Version:  1.6                                   |
|   \\  /    A nd           | Web:      http://www.OpenFOAM.org               |
|    \\/     M anipulation  |                                                 |
\*---------------------------------------------------------------------------*/
FoamFile
{
    version     2.0;
    format      ascii;
    class       dictionary;
    object      turbineArrayProperties;
}
// * * * * * * * * * * * * * * * * * * * * * * * * * * * * * * * * * * * * * //

turbine0
{
  refx  100.0;    // no account for OverHang
  refy  110.0;
  refz    0.0;
  hubz   30.0;
}

turbine1
{
  refx  100.0;    // no account for OverHang
  refy  138.0;
  refz    0.0;
  hubz   30.0;
}

general
{
  yawAngle                0.0;
  numberofBld             2;
  numberofBldPts          30;           
  rotorDiameter           20.0;
  
  epsilon             2.40;         // mesh = coarse-e1
  // epsilon             2.70;         // mesh = coarse-e2
  // epsilon             3.00;         // mesh = coarse-e3
  // epsilon             2.00;         // mesh = medium1-e1
  // epsilon             2.25;         // mesh = medium1-e2
  // epsilon             2.50;         // mesh = medium1-e3
  // epsilon             1.60;         // mesh = medium2-e1
  // epsilon             1.80;         // mesh = medium2-e2
  // epsilon             2.00;         // mesh = medium2-e3
  // epsilon             1.20;         // mesh = fine-e1

  smearRadius             4.80000;         // mesh = coarse-e1
  // smearRadius             6.07500;         // mesh = coarse-e2
  // smearRadius             7.50000;         // mesh = coarse-e3
  // smearRadius             4.00000;         // mesh = medium1-e1
  // smearRadius             5.06250;         // mesh = medium1-e2
  // smearRadius             6.25000;         // mesh = medium1-e3
  // smearRadius             3.20000;         // mesh = medium2-e1
  // smearRadius             4.05000;         // mesh = medium2-e2
  // smearRadius             5.00000;         // mesh = medium2-e3
  // smearRadius             2.40000;         // mesh = fine-e1

  effectiveRadiusFactor             1.4800000034;         // mesh = coarse-e1
  // effectiveRadiusFactor             1.6075000031;         // mesh = coarse-e2
  // effectiveRadiusFactor             1.7500000029;         // mesh = coarse-e3
  // effectiveRadiusFactor             1.4000000036;         // mesh = medium1-e1
  // effectiveRadiusFactor             1.5062500033;         // mesh = medium1-e2
  // effectiveRadiusFactor             1.6250000031;         // mesh = medium1-e3
  // effectiveRadiusFactor             1.3200000038;         // mesh = medium2-e1
  // effectiveRadiusFactor             1.4050000036;         // mesh = medium2-e2
  // effectiveRadiusFactor             1.5000000033;         // mesh = medium2-e3
  // effectiveRadiusFactor             1.2400000040;         // mesh = fine-e1


  // pointInterpType         1;
  pointInterpType         0;
}

