/*--------------------------------*- C++ -*----------------------------------*\
| =========                 |                                                 |
| \\      /  F ield         | OpenFOAM: The Open Source CFD Toolbox           |
|  \\    /   O peration     | Version:  2.3.x                                 |
|   \\  /    A nd           | Web:      http://www.OpenFOAM.org               |
|    \\/     M anipulation  |                                                 |
\*---------------------------------------------------------------------------*/
FoamFile
{
    version     2.0;
    format      ascii;
    class       dictionary;
    object      turbineArrayProperties;
}
// * * * * * * * * * * * * * * * * * * * * * * * * * * * * * * * * * * * * * //
 
globalProperties
{
    outputControl       "timeStep";
    outputInterval       1;
}
 
turbine0
{
    turbineType         "DOE-Tidal-Ref-Model_LabScale";
    baseLocation        (4.0 0.5 0);
    numBladePoints      30;
    pointDistType       "uniform";
    pointInterpType     "linear";
    bladeUpdateType     "oldPosition";
    epsilon             0.02;
    tipRootLossCorrType "Glauert";
    rotationDir         "cw";
    Azimuth             0;
    TorqueGen		                                         9999.9;
    RotSpeed            373.7;
    Pitch               0;
    NacYaw              0;
    fluidDensity        1000.0;
}
