/*--------------------------------*- C++ -*----------------------------------*\
| =========                 |                                                 |
| \\      /  F ield         | OpenFOAM: The Open Source CFD Toolbox           |
|  \\    /   O peration     | Version:  2.3.x                                 |
|   \\  /    A nd           | Web:      http://www.OpenFOAM.org               |
|    \\/     M anipulation  |                                                 |
\*---------------------------------------------------------------------------*/
FoamFile
{
    version     2.0;
    format      ascii;
    class       dictionary;
    object      turbineArrayProperties;
}
// * * * * * * * * * * * * * * * * * * * * * * * * * * * * * * * * * * * * * //
 
globalProperties
{
    outputControl       "timeStep";
    outputInterval       1;
}


// NacYaw:
// This is the initial or fixed nacelle yaw angle. It is positive counterclockwise when looking down
// on the turbine (rotate about z-axis). This value must be greater than –180 and less than or equal to 180 degrees.

turbine1
{
    turbineType         "DOE-Tidal-Ref-Model_LabScale";
    // baseLocation        (4.0 -0.225 0.0);
    // baseLocation        (4.5 0.275 0.0);   // account for OverHang distance 
    baseLocation        (4.5 0.44375 0.0);   // account for OverHang distance
    numBladePoints      30;
    pointDistType       "uniform";
    pointInterpType     "linear";
    bladeUpdateType     "oldPosition";
    epsilon             0.041667;
    tipRootLossCorrType "none";
    rotationDir         "cw";
    Azimuth             0;
    TorqueGen                                                9999.9;
    // RotSpeed            373.7;
    RotSpeed            289.45;
    Pitch               0;
    NacYaw              -90;
    fluidDensity        1000.0;
}

turbine2
{
    turbineType         "DOE-Tidal-Ref-Model_LabScale";
    // baseLocation        (6.25 0.0 0.0);
    baseLocation        (6.75 0.5 0.0);     // account for OverHang distance
    numBladePoints      30;
    pointDistType       "uniform";
    pointInterpType     "linear";
    bladeUpdateType     "oldPosition";
    epsilon             0.041667;
    tipRootLossCorrType "none";
    rotationDir         "cw";
    Azimuth             45;
    TorqueGen                                                9999.9;
    // RotSpeed            373.7;
    RotSpeed            289.45;    
    Pitch               0;
    NacYaw              -90;
    fluidDensity        1000.0;
}

turbine3
{
    turbineType         "DOE-Tidal-Ref-Model_LabScale";
    // baseLocation        (8.5 0.225 0.0);
    baseLocation        (9.0 0.55625 0.0);    // account for overHang distance
    numBladePoints      30;
    pointDistType       "uniform";
    pointInterpType     "linear";
    bladeUpdateType     "oldPosition";
    epsilon             0.041667;
    tipRootLossCorrType "none";
    rotationDir         "cw";
    Azimuth             90;
    TorqueGen                                                9999.9;
    // RotSpeed            373.7;
    RotSpeed            289.45;    
    Pitch               0;
    NacYaw              -90;
    fluidDensity        1000.0;
}
