/*--------------------------------*- C++ -*----------------------------------*\
| =========                 |                                                 |
| \\      /  F ield         | OpenFOAM: The Open Source CFD Toolbox           |
|  \\    /   O peration     | Version:  1.6                                   |
|   \\  /    A nd           | Web:      http://www.OpenFOAM.org               |
|    \\/     M anipulation  |                                                 |
\*---------------------------------------------------------------------------*/
FoamFile
{
    version     2.0;
    format      ascii;
    class       dictionary;
    object      turbineArrayProperties;
}
// * * * * * * * * * * * * * * * * * * * * * * * * * * * * * * * * * * * * * //

turbine0
{
  refx  1.35;
  refy  0.5;
  refz  0.0;
  hubz  0.4;
}

// turbine1
// {
//   // refx  6.25;
//   refx  6.75;    // account for OverHang
//   refy  0.5;
//   refz  0.0;
//   hubz  0.4;
// }

// turbine2
// {
//   // refx  8.5;
//   refx  9.0;    // account for OverHang
//   refy  0.55625;
//   refz  0.0;
//   hubz  0.4;
// }

general
{
  yawAngle                0.0;
  numberofBld             2;
  numberofBldPts          30;           
  rotorDiameter           0.45;

  // epsilon                 0.0526;        // mesh = coarse
  epsilon                 0.032875;      // mesh = medium1
  // epsilon                 0.0263;        // mesh = medium2
  // epsilon                 0.019725;      // mesh = medium3
  // epsilon                 0.017884;      // mesh = fine
  
  // smearRadius             0.138338;      // mesh=coarse
  smearRadius             0.08646125;    // mesh=medium1
  // smearRadius             0.069169;      // mesh=medium2
  // smearRadius             0.05187675;    // mesh=medium3
  // smearRadius             0.017884;      // mesh=fine
  
  // effectiveRadiusFactor   1.6148416717;    // mesh = coarse
  effectiveRadiusFactor   1.384279357;     // mesh = medium1
  // effectiveRadiusFactor   1.307425332;     // mesh = medium2
  // effectiveRadiusFactor   1.2305713593;    // mesh = medium3
  // effectiveRadiusFactor   1.2090522577;    // mesh = fine
  
  pointInterpType         1;
}

