/*--------------------------------*- C++ -*----------------------------------*\
| =========                 |                                                 |
| \\      /  F ield         | OpenFOAM: The Open Source CFD Toolbox           |
|  \\    /   O peration     | Version:  1.6                                   |
|   \\  /    A nd           | Web:      http://www.OpenFOAM.org               |
|    \\/     M anipulation  |                                                 |
\*---------------------------------------------------------------------------*/
FoamFile
{
    version     2.0;
    format      ascii;
    class       dictionary;
    object      turbineArrayProperties;
}
// * * * * * * * * * * * * * * * * * * * * * * * * * * * * * * * * * * * * * //

turbine0
{
  // refx  4.0;
  refx  4.5;    // account for OverHang
  refy  0.44375;
  refz  0.0;
  hubz  0.4;
}

turbine1
{
  // refx  6.25;
  refx  6.75;    // account for OverHang
  refy  0.5;
  refz  0.0;
  hubz  0.4;
}

turbine2
{
  // refx  8.5;
  refx  9.0;    // account for OverHang
  refy  0.55625;
  refz  0.0;
  hubz  0.4;
}

general
{
  yawAngle                0.0;
  numberofBld             2;
  numberofBldPts          30;           
  rotorDiameter           0.45;
<<<<<<< HEAD
  // epsilon                 0.041667;
  // smearRadius             0.109583;
  // effectiveRadiusFactor   1.487037;
  epsilon                 0.015763;
  smearRadius             0.041456;
  effectiveRadiusFactor   1.184249;  
=======
  epsilon                 0.04;
  smearRadius             0.1052;
  effectiveRadiusFactor   1.467556;  
>>>>>>> origin/Mesh=coarse_Turbines=3_TSR=6.2_Layour=5D-axial-offset
  pointInterpType         1;
}

