/*--------------------------------*- C++ -*----------------------------------*\
| =========                 |                                                 |
| \\      /  F ield         | OpenFOAM: The Open Source CFD Toolbox           |
|  \\    /   O peration     | Version:  1.6                                   |
|   \\  /    A nd           | Web:      http://www.OpenFOAM.org               |
|    \\/     M anipulation  |                                                 |
\*---------------------------------------------------------------------------*/
FoamFile
{
    version     2.0;
    format      ascii;
    class       dictionary;
    object      turbineArrayProperties;
}
// * * * * * * * * * * * * * * * * * * * * * * * * * * * * * * * * * * * * * //


turbine0
{
  refx  4.0;
  refy  0.5;
  refz  0.0;
  hubz  0.4;
}

general
{
  yawAngle                0.0;
  numberofBld             2;
  numberofBldPts          30;           
  rotorDiameter           0.45;
  epsilon                 0.02;
  smearRadius             0.2;
  effectiveRadiusFactor   1.0;
  pointInterpType         1;
}

